LTspice 24.1.10 for Windows
Circuit: C:\Users\brean\OneDrive - National University of Ireland, Galway\University\Year 5\Masters_Project\Spice\phase_shifter.net
Start Time: Mon Oct 13 23:45:59 2025
solver = Normal
Maximum thread count: 8
tnom = 27
temp = 27
method = trap
.OP point found by inspection.
Total elapsed time: 0.090 seconds.

Files loaded:
C:\Users\brean\OneDrive - National University of Ireland, Galway\University\Year 5\Masters_Project\Spice\phase_shifter.net

